5Case fpc/fpc_case_manaus_sin_5perc.PWF
(
( Gravacao de .PWF - CART
( Versao do Anarede: 11.07.00
( Data e Hora da Gravacao: 24/08/2023 - 14:16:26                                                           
(
TITU
MANAUS-SIN
DAGR
(AG ( D E S C R I C A O ) 
001 TIPOS 
(ID O ( Nome de Identificacao ) 
  9   BARRA PQ
  8   BARRA PV
99999                                                                      
DBAR
(Num)OETGb(   nome   )Gl( V)( A)( Pg)( Qg)( Qn)( Qm)(Bc  )( Pl)( Ql)( Sh)Are(Vf)M(1)(2)(3)(4)(5)(6)(7)(8)(9)(10
10012 L  SLECHUG-AM500 4104229.1                                          101000                                   
10110 L  OLECHUG-AM230  101627.1                                          101000                                   
10111 L  MLECHUG-AM138  1005 24.                                          101000                                   
10120 L  ZLECHU1-AM000 E1024 27.                                          101000                                   
10130 L  ZLECHU1-AM000 E101623.4                                          101000                                   
10132 L  ZLECHU3-AM000 E101623.4                                          101000                                   
10222 L2 SLE-S-ACAP500 4101023.61282.354.9-999999999                      101000                                   
10300 L  JAPAREC-AM069 5 99318.1                           73.4 14.9     1131000   9                                  
10306 L  MIRANDU-AM138   97114.8                          16.52 3.35  15.1131000   9                                
10308 L  MPARQ10-AM138   97216.2                          90.8418.45     1131000   9                                
10310 L  MDI-4---AM138  102422.3                          78.0715.85     1131000   9                                
10312 L  MRIOPTE-AM138  101323.1                          10.68 2.17     1131000   9                                
10313 L  MAMAZON-AM138  101623.7                          79.7416.19     1131000   9                                
10320 L  JMAUAB1-AM069  102015.6                                         1131000                                   
10325 L  JMAUAB2-AM069  102015.6                                         1131000                                   
10335 L  JMAUA2M-AM069 2102015.7                          39.49 8.02     1131000   9                                
10344 L  JCONSE1-AM069  102115.8                          38.23 7.76     1131000   9                                
10345 L  JCONSE2-AM069  100912.8                          10.98 2.23     1131000   9                                
10350 L  JCACHO2-AM069  101114.5                          39.99 8.12     1131000   9                                
10351 L  JCACHO1-AM069   99718.9                          20.82 4.23     1131000   9                                
10361 L  ZJTEIX1-AM000 E 99319.5                                         1131000                                   
10362 L  ZJTEIX2-AM000 E 99319.5                                         1131000                                   
10363 L  ZJTEIX3-AM000 E 99319.5                                         1131000                                   
10364 L  ZJTEIX4-AM000 E 99319.5                                         1131000                                   
10369 L  ZJTEIX5-AM000   99319.5                                         1131000                                   
10370 L  JFLORES-AM069  100319.3                          79.2516.09     1131000   9                                
10379 L  JAMBEV--AM069  100319.3                           3.89  .79     1131000   9                                
10380 L  JPNEGRA-AM069  1002 19.                          21.61 3.78     1131000   9                                
10384 L  ZMAU3-4-AM000 E100818.7                                         1131000                                   
10390 L  JPIEPNG-AM069  100719.6                                         1131000                                   
10391 L1 DPIEPNGUTE013 2104020.9  60.19.97-51.251.24                     1131000                                   
10393 L  JPISMAE-AM069   996 18.                          15.71 3.19     1131000   9                                
10394 L  JSHOPMA-AM069  100219.4                           5.38 1.09     1131000   9                                
10395 L  JSERING-AM069   998 19.                          38.79 7.88     1131000   9                                
10400 L  OMANAUS-AM230  101025.1                                         1131000                                   
10401 L  JMANA1A-AM069  100120.5                          81.9116.64     1131000   9                                
10402 L  JMANAU2-AM069  101711.1                                         1131000                                   
10405 L  OCROCHA-AM230  102527.3                                         1131000                                   
10406 L1 DCROCHAUTE013 2104032.2  65.14.12-51.251.24                     1131000                                   
10410 L  OBALBIN-AM230  103330.9                                         1131000                                   
10411 L1 DBALBI1UHE013 2 99334.3145.5-30.9-121.120.6        1.8   .3     1131000   9                                
10416 L  JP.FIG.-AM069 2100628.2                                         1131000                                   
10417 L  JP.FIG.-AM069 2101228.1                                         1151000                                   
10418 L  DP.FIG.-AM013  100326.5                          14.29  2.9     1131000   9                                
10419 L  OP.FIG.-AM230  103329.2                                         1131000                                   
10420 L  JDISTR1-AM069  101314.8                          82.5416.76     1131000   9                                
10421 L  JCESPEC-AM069  101114.5                          52.9410.75     1131000   9                                
10422 L  ZMANA-1-AM000 E1007 19.                                         1131000                                   
10424 L  ZMANA-2-AM000 E100718.8                                         1131000                                   
10426 L  ZMANA-3-AM000 E100718.8                                         1131000                                   
10428 L  ZMANA-4-AM000 E100718.8                                         1131000                                   
10430 L  JCIDNOV-AM069  100110.4                          80.6114.87     1131000   9                                
10435 L  JMANAUA-AM069  104123.7                                         1131000                                   
10436 L1 DPIEMANUTE013 2104027.6  60.23.22-51.251.24                     1131000                                   
10437 L  JSTAETE-AM069  102821.9                          41.42 8.41     1131000   9                                
10440 L  JDISTR2-AM069  101615.3                           62.112.61     1131000   9                                
10445 L  JTAMBAQ-AM069  102016.3                                         1131000                                   
10447 L1 DPIETBQUTE013 2 97618.6  60.8.007-36.750.73                     1131000                                   
10450 L  JSJOSE--AM069  101212.3                          48.16 9.78     1131000   9                                
10451 L  JPLACIB-AM069  1016 14.                           4.91   1.     1131000   9                                
10460 L  JSTOANT-AM069  101720.6                          36.13 7.34     1131000   9                                
10461 L  JJARAQU-AM069  104524.1                          27.36 5.55     1131000   9                                
10466 L  JSIVAM--AM069  1011 20.                           21.5 4.37     1131000   9                                
10471 L1 DPIEJRQUTE013 2103026.3  60.18.09-36.750.73                     1131000                                   
10480 L  JMANACA-AM069   9549.71                          13.47 2.74     1131000   9                                
10485 L  JIRANDU-AM069  101414.8                          16.52 3.35     1131000   9                                
10490 L  JREDENC-AM069  100119.1                          57.3911.65     1131000   9                                
10492 L  JMARAPA-AM069  101214.6                          66.3913.49     1131000   9                                
10500 L  OMAUA-3-AM230  100624.3                                         1131000                                   
10501 L1 DMAUA3GUTE013  104028.6 141.67.27 -75. 120.                     1131000                                   
10503 L1 DMAUA3VUTE013  104027.4 104.67.08 -82. 131.                     1131000                                   
10504 L  MMAUA-3-AM138  100222.4                                         1131000                                   
10505 L  JMAUA-3-AM069  100315.8                                         1131000                                   
10509 L  JMUBL4M-AM069  102015.6                                         1131000                                   
10510 L  OJ.TEIX-AM230  100624.5                                         1131000                                   
10511 L  MJ.TEIX-AM138  1002 20.                                         1131000                                   
10513 L  JMUBL4D-AM069  102015.6                                         1131000                                   
10515 L  JAMAZON-AM069  101023.5                                         1131000                                   
10520 L  MMUTIRA-AM138   98318.1                          81.0516.46     1131000   9                                
10530 L  MCGRAND-AM138   97316.4                          102.920.89     1131000   9                                
10540 L  MCOMPEN-AM138   96815.3                           151.31.28     1131000   9                                
10545 L  MCENTRO-AM138   96915.6                          99.7520.25     1131000   9                                
10550 L  MDISTR3-AM138   99319.8                          98.7520.05     1131000   9                                
10700 L  MJARAQ2-AM138  101523.6                          49.74 10.1     1131000   9                                
10755 L  OAE-SB5-AM230  100824.5                                          101000                                   
99999
DLIN
(De )d O d(Pa )NcEPM( R% )( X% )(Mvar)(Tap)(Tmn)(Tmx)(Phs)(Bc  )(Cn)(Ce)Ns(Cq)(1)(2)(3)(4)(5)(6)(7)(8)(9)(10
10012     10120 1          .2913      1.011   .9  1.1     -1011024003120322400                                
10012     10222 1           -.78                                25003000  2500                                
10110     10130 1          8.997      .9981   .9  1.1     -10111150.180.21150.                                
10110     10132 1          8.997      .9981   .9  1.1     -10111150.180.21150.                                
10110     10400 1      .19  1.31  4.77                          435.552.  494.                                
10110     10400 2      .19  1.31  4.77                          435.552.  494.                                
10110     10510 1    .19751.85127.6958                          775.922.  625.                                
10110     10510 2    .19751.85127.6958                          775.922.  625.                                
10110     10510 3    .19751.85127.6958                          775.922.  625.                                
10111     10312 1    4.931 15.87 5.467                          138.160.  138.                                
10111     10313 1     .093  .802  .452                          410.530.  410.                                
10111     10313 2     .093  .802  .452                          410.530.  410.                                
10120     10110 1          -.004         1.                     24003120  2400                                
10130     10111 1         -1.503         1.                     150.180.  150.                                
10132     10111 1         -1.503         1.                     150.180.  150.                                
10300     10380 1D    2.52  8.26   .15                           69. 86.   69.                                
10300     10395 1      1.1  3.61   .06                           69. 86.   69.                                
10306     10485 1            .36       .983  .95 1.05     -10485 50. 60.32 50.                                
10313     10515 1            20.      .9807   .9  1.1     -10515 60. 72.16 60.                                
10313     10515 2            20.      .9807   .9  1.1     -10515 60. 72.16 60.                                
10313     10515 3            20.      .9807   .9  1.1     -10515 60. 72.16 60.                                
10313     10700 1     .125  .981  .601                          335.420.  335.                                
10313     10700 2     .125  .981  .601                          335.420.  335.                                
10320     10325 1            .01                                300.300.  300.                                
10320     10402 1D     3.5 11.46    .2                           69. 86.   69.                                
10320     10420 1    1.865 6.024  .118                           69. 86.   69.                                
10320     10492 1      .84   5.2    .1                           91.114.   91.                                
10325     10335 1      .04   .19   .08                           91.114.   91.                                
10325     10440 1D    1.213.9574 .0705                           69. 86.   69.                                
10325     10440 2DT   1.213.9574 .0705                           69. 86.   69.                                
10335     10505 1     .035  .225    .2                          190.190.  190.                                
10335     10509 1      .05   .37  .007                           91.110.   91.                                
10344     10505 1            .01                                 86. 86.   86.                                
10345     10430 1 T   1.24  7.65  .149                           91.114.   91.                                
10345     10505 1     1.14  7.87   .11                           91.114.   91.                                
10350     10440 2      1.1  6.87   .13                           91.114.   91.                                
10350     10492 1      .42  2.59  .005                           91.110.   91.                                
10351     10300 1 T    .59  3.66   .07                           91.114.   91.                                
10351     10350 1D           .01                                150.150.  150.                                
10351     10395 1     1.18  3.85   .07                           69. 86.   69.                                
10351     10401 1     1.78  5.66  .116                           69. 86.   69.                                
10361     10511 1          -.563         1.                     150.165.  150.                                
10362     10511 1          -.563         1.                     150.165.  150.                                
10363     10511 1           -.59         1.                     150.165.  150.                                
10364     10511 1          -.563         1.                     150.165.  150.                                
10369     10511 1          -.563         1.                     150.165.  150.                                
10370     10379 1      .05   .15  .003                           69. 98.   69.                                
10370     10490 1    .44031.4401 .0257                           69. 86.   69.                                
10370     10490 2    .44031.4401  .257                           69. 86.   69.                                
10380     10390 1    .29831.8509 .0359                           82.104.   82.                                
10380     10490 1   1.34654.4038 .0785                           69. 86.   69.                                
10380     10490 2   1.34654.4038 .0785                           69. 86.   69.                                
10384     10504 1          -1.22         1.                     600.720.  600.                                
10391     10390 1           4.12      1.025                     100.100.  100.                                
10393     10300 1      .75  4.63   .09                           91.114.   91.                                
10393     10380 1       .6  3.71  .072                           91.114.   91.                                
10393     10485 1     5.08 16.61    .3                           53. 66.   53.                                
10395     10394 1      .59  1.94  .034                           69. 86.   69.                                
10400     10422 1          12.01      .9815  .95 1.05     -10401150.154. 5150.                                
10400     10424 1         12.013      .9815  .95 1.05     -10401150.154. 5150.                                
10400     10426 1         12.013      .9815  .95 1.05     -10401150.154. 5150.                                
10400     10428 1         12.013      .9815  .95 1.05     -10401150.154. 5150.                                
10400     10755 1    .0214 .480342.671                          741.741.  494.                                
10401     10370 1   1.29164.2243 .0753                           69. 86.   69.                                
10401     10370 2   1.29164.2243 .0753                           69. 86.   69.                                
10401     10370 3      .72  4.48  .087                           91.114.   91.                                
10401     10394 1     1.29  4.23  .075                           69. 86.   69.                                
10401     10395 1   2.07316.7799 .1208                           69. 86.   69.                                
10402     10430 1   2.19087.1649 .1277                           69. 86.   69.                                
10402     10450 1   2.1538 7.044 .1255                           69. 86.   69.                                
10402     10460 1DT 2.78789.1176 .1625                           69. 86.   69.                                
10405     10110 1      .05   .36  1.32                          435.552.  494.                                
10405     10406 1            14.         1.                      75. 75.   75.                                
10405     10419 1    .90565.859723.547                          435.552.  494.                                
10410     10110 1    1.596 10.35 42.02                          435.552.  494.                                
10410     10411 1           4.15      1.025                     310.310.  310.                                
10416     10417 1    .88393.6224 .0735                           74. 93.   74.                                
10416     10417 2    .88393.6224 .0735                           74. 93.   74.                                
10417     10418 1            40.      .9955   .9  1.1     -10418 30. 36.32 30.                                
10417     10418 2            40.      .9955   .9  1.1     -10418 30. 36.32 30.                                
10419     10410 1    .63844.116416.551                          435.552.  494.                                
10419     10416 1            24.      1.015   .9  1.1     -10416 50. 60.32 50.                                
10419     10416 2            24.      1.015   .9  1.1     -10416 50. 60.32 50.                                
10420     10350 1      .65  4.07  .078                           69. 86.   69.                                
10420     10421 2      .23    .8  .018                           69. 86.   69.                                
10420     10440 1      .53  3.34  .064                           69. 86.   69.                                
10422     10401 1          -2.81         1.                     150.154.  150.                                
10424     10401 1           -3.2         1.                     150.154.  150.                                
10426     10401 1           -3.2         1.                     150.154.  150.                                
10428     10401 1           -3.2         1.                     150.154.  150.                                
10430     10437 1D   .6811  4.22 .0819                           91.114.   91.                                
10435     10436 1          12.15      1.025                      70. 70.   70.                                
10440     10445 1    .4773 2.963 .0574                           82.104.   82.                                
10440     10505 1     1.04  3.56   .07                           69. 86.   69.                                
10440     10505 2      .99  3.26  .058                           69. 86.   69.                                
10445     10447 1           6.47       1.05                      70. 70.   70.                                
10450     10451 1     .877 4.152  .079                           91.114.   91.                                
10451     10505 1 T    .67   4.1   .08                           91.114.   91.                                
10460     10466 1   1.56355.1133 .0911                           69. 86.   69.                                
10461     10471 1           6.47      1.025                      70. 70.   70.                                
10485     10480 1    10.75 63.89 1.242                           91.114.   91.                                
10500     10384 1          1.862      .9716   .9  1.1     -10504600.180.17150.                                
10500     10501 1     .042   5.6         1.                     250.300.  230.                                
10500     10503 1     .043  5.42         1.                     250.300.  250.                                
10500     10510 1    .0846 .79263.2941                          625.781.  625.                                
10500     10510 2    .0846 .79263.2941                          625.781.  625.                                
10504     10310 1     .062   .49    .3                          335.420.  335.                                
10504     10310 2     .062   .49    .3                          335.420.  335.                                
10504     10505 1          10.55      .9762   .9  1.1     -10505150.180.16150.                                
10504     10505 2          10.55      .9762   .9  1.1     -10505150.180.16150.                                
10504     10505 3          10.55      .9762   .9  1.1     -10505150.180.16150.                                
10504     10505 4          10.55      .9762   .9  1.1     -10505150.180.16150.                                
10505     10325 1      .09   .62   .12                           91.114.   91.                                
10505     10420 1     2.02  6.63  .118                           69. 86.   69.                                
10505     10420 2      .85  5.25  .101                           91.110.   91.                                
10505     10492 1     1.08   6.7  .129                           91.110.   91.                                
10510     10361 1           6.83      .9899   .9  1.1     -10511150.165.17150.                                
10510     10362 1           6.83      .9899   .9  1.1     -10511150.165.17150.                                
10510     10363 1          6.857      .9899   .9  1.1     -10511150.165.17150.                                
10510     10364 1           6.83      .9899   .9  1.1     -10511150.165.17150.                                
10510     10369 1           6.83      .9899   .9  1.1     -10511150.165.17150.                                
10511     10520 1    .15871.2046 .7039                          335.420.  335.                                
10511     10520 2    .15871.2046 .7039                          335.420.  335.                                
10511     10550 1     .078  .594  .379                          335.420.  335.                                
10511     10550 2     .078  .594  .379                          335.420.  335.                                
10513     10420 1      .77  5.37   .11                           91.110.   91.                                
10513     10509 1            .01                                150.150.  150.                                
10515     10435 1      .13   .77  .011                           91.110.   91.                                
10515     10437 1     1.17  7.25  .102                           91.110.   91.                                
10515     10460 1     1.65  9.54   .19                           91.110.   91.                                
10515     10461 1      .72  4.18   .08                           91.110.   91.                                
10520     10530 1    .16061.2216 .7139                          335.420.  335.                                
10520     10530 2    .16061.2216 .7139                          335.420.  335.                                
10530     10308 1     .094  .735   .45                          335.420.  335.                                
10530     10308 2     .094  .735   .45                          335.420.  335.                                
10530     10540 1    .22011.7476 1.021                          335.420.  335.                                
10530     10545 1     .116  .915  .561                          335.420.  335.                                
10540     10306 1     .909 4.971 1.401                          330.420.  330.                                
10540     10545 1       .1  .772  .465                          335.420.  335.                                
10755     10500 1    .0258 .21761.1161                          625.781.  625.                                
99999
DBSH
(NFr) O (NTo) Nc C (Vmn (Vmx Bctrl (Qini) T A (Extr
10012            D 1000 1100 10012  -200. C         
(G  O E (U) UOp (Sht ) M
 1        1   1  -200. S
FBAN
(NFr) O (NTo) Nc C (Vmn (Vmx Bctrl (Qini) T A (Extr
10110            D 0950 1050 10110   110. C         
(G  O E (U) UOp (Sht ) M
 1        6   2    55. S
FBAN
(NFr) O (NTo) Nc C (Vmn (Vmx Bctrl (Qini) T A (Extr
10410   10110  1 D 0950 1050 10110        C   10110 
(G  O E (U) UOp (Sht ) M
 1        2   0   -15. S
FBAN
(NFr) O (NTo) Nc C (Vmn (Vmx Bctrl (Qini) T A (Extr
10306            D 0950 1050 10306    10. C         
(G  O E (U) UOp (Sht ) M
 1        2   1    10. S
FBAN
(NFr) O (NTo) Nc C (Vmn (Vmx Bctrl (Qini) T A (Extr
10402            D 0950 1050 10402    30. C         
(G  O E (U) UOp (Sht ) M
 1        1   1    30. S
FBAN
(NFr) O (NTo) Nc C (Vmn (Vmx Bctrl (Qini) T A (Extr
10405   10419  1 D 0950 1050 10405   -15. C   10405 
(G  O E (U) UOp (Sht ) M
 1        2   1   -15. S
FBAN
99999
DGER
(No ) O (Pmn ) (Pmx ) ( Fp) (FpR) (FPn) (Fa) (Fr) (Ag) ( Xq) (Sno) (Est)
10391       0.   149.    0.  100.                                     0.
10406       0.    85.    0.  100.                                     0.
10411       0.   250.    0.  100.                                     0.
10436       0.  91.75    0.  100.                                     0.
10447       0.   231.    0.  100.                                     0.
10471       0.   231.    0.  100.                                     0.
10501       0.   150.    0.  100.                                     0.
10503       0.   110.    0.  100.                                     0.
99999
DGLT
(G (Vmn) (Vmx) (Vmne (Vmxe
 4    1.   1.1   .95   1.1
 0   .95  1.05    .9  1.05
 5    .9   1.1    .9   1.1
 2   .95  1.05   .95  1.05
99999
DARE
(Ar    (Xchg)     (      Identificacao da area       ) (Xmin) (Xmax)
 10        0.     TUCURUI-MACAPA-MANAUS                              
113        0.     AMAZONAS-ENERGIA                                   
115        0.     RORAIMA ENERGIA                                    
99999
DGBT
(G ( kV)
 S  500.
 O  230.
 M  138.
 J   69.
 D  13.8
 Z    1.
99999
DCMT
(-------------------------------- Comentarios ---------------------------------)
COMP. SINCRONO FICTICIO EM BEADE--AP013 - BARRA 10044                           
COMP. SINCRONO FICTICIO EM TABATI-SP138 - BARRA 30019                           
99999
FIM